gem5 Simulator System.  http://gem5.org
gem5 is copyrighted software; use the --copyright option for details.

gem5 compiled Nov 18 2024 16:30:56
gem5 started Jan  3 2025 10:39:45
gem5 executing on 6af4b85fece3, pid 12633
command line: /workspace/gem5-aladdin/src/aladdin/../../build/X86/gem5.opt --debug-flags=Aladdin,HybridDatapath --outdir=/workspace/smaug/experiments/sims/smv/tests/minerva/outputs --stats-db-file=stats.db /workspace/gem5-aladdin/src/aladdin/../../configs/aladdin/aladdin_se.py --num-cpus=1 --mem-size=4GB --mem-type=LPDDR4_3200_2x16 --sys-clock=1.25GHz --cpu-clock=2.5GHz --cpu-type=DerivO3CPU --ruby --network=garnet2.0 --access-backing-store --l2_size=2097152 --l2_assoc=16 --cacheline_size=32 --accel_cfg_file=gem5.cfg --fast-forward=10000000000 -c /workspace/smaug/experiments/../build/bin/smaug -o '/workspace/smaug/experiments/models/minerva/minerva_smv_topo.pbtxt /workspace/smaug/experiments/models/minerva/minerva_smv_params.pb --sample-level=high --gem5 --debug-level=0 --num-accels=1 '

Global frequency set at 1000000000000 ticks per second
-------------------------------
      Setting ScratchPad       
-------------------------------
      0: system: Registered accelerator 3
      0: system.acc0_datapath: Registering stats.
Switch at instruction count:10000000000
Model topology file: /workspace/smaug/experiments/models/minerva/minerva_smv_topo.pbtxt
Model parameters file: /workspace/smaug/experiments/models/minerva/minerva_smv_params.pb
Sampling level: high, number of sample iterations: 1
Number of accelerators: 1
======================================================
      Loading the network model...
======================================================
Adding data (Data).
Adding reorder (Reorder).
Adding data_1 (Data).
Adding mat_mul (InnerProduct).
Adding data_2 (Data).
Adding mat_mul_1 (InnerProduct).
Adding data_3 (Data).
Adding mat_mul_2 (InnerProduct).
Adding data_4 (Data).
Adding mat_mul_3 (InnerProduct).
======================================================
      Summary of the network.
======================================================
____________________________________________________________________________________________
Layer (type)                             Output shape                 Parameters  
____________________________________________________________________________________________
data_4 (Data)                            (10, 256)                        0       
____________________________________________________________________________________________
data_3 (Data)                            (256, 256)                       0       
____________________________________________________________________________________________
data_2 (Data)                            (256, 256)                       0       
____________________________________________________________________________________________
data_1 (Data)                            (256, 784)                       0       
____________________________________________________________________________________________
data (Data)                              (1, 28, 28, 1)                   0       
____________________________________________________________________________________________
reorder (Reorder)                        (1, 784)                         0       
____________________________________________________________________________________________
mat_mul (InnerProduct)                   (1, 256)                       200704    
____________________________________________________________________________________________
mat_mul_1 (InnerProduct)                 (1, 256)                       65536     
____________________________________________________________________________________________
mat_mul_2 (InnerProduct)                 (1, 256)                       65536     
____________________________________________________________________________________________
mat_mul_3 (InnerProduct)                 (1, 10)                         2560     
____________________________________________________________________________________________
======================================================
      Tiling operators of the network...
======================================================
Tiling data (Data).
Tiling data_1 (Data).
Tiling data_2 (Data).
Tiling data_3 (Data).
Tiling data_4 (Data).
Tiling mat_mul (InnerProduct).
Tiling mat_mul_1 (InnerProduct).
Tiling mat_mul_2 (InnerProduct).
Tiling mat_mul_3 (InnerProduct).
Tiling reorder (Reorder).
Switched CPUS @ tick 40325230400
switching cpus
**** REAL SIMULATION ****
======================================================
      Scheduling operators of the network...
======================================================
Scheduling data (Data).
Scheduling data_1 (Data).
Scheduling data_2 (Data).
Scheduling data_3 (Data).
Scheduling data_4 (Data).
Scheduling reorder (Reorder).
Scheduling mat_mul (InnerProduct).
40431329600: system.acc0_datapath: Setting host_a to memory type dma.
40431443200: system.acc0_datapath: Setting host_b to memory type dma.
40431476000: system.acc0_datapath: Setting host_results to memory type dma.
40437200000: system.acc0_datapath: Inserting array label mapping host_results -> vpn 0x3739a0, size 512.
40437200000: system.acc0_datapath: Mapping vaddr 0x3739a0 -> paddr 0x1a839a0.
40437200000: system.acc0_datapath: Inserting TLB entry vpn 0x373000 -> ppn 0x1a83000.
40440308000: system.acc0_datapath: Inserting array label mapping host_a -> vpn 0x3ab020, size 1568.
40440308000: system.acc0_datapath: Mapping vaddr 0x3ab020 -> paddr 0x1abb020.
40440308000: system.acc0_datapath: Inserting TLB entry vpn 0x3ab000 -> ppn 0x1abb000.
40442261600: system.acc0_datapath: Inserting array label mapping host_b -> vpn 0x3e4f00, size 25088.
40442261600: system.acc0_datapath: Mapping vaddr 0x3e4f00 -> paddr 0x1bd7f00.
40442261600: system.acc0_datapath: Inserting TLB entry vpn 0x3e4000 -> ppn 0x1bd7000.
40442261600: system.acc0_datapath: Mapping vaddr 0x3e5f00 -> paddr 0x1bd8f00.
40442261600: system.acc0_datapath: Inserting TLB entry vpn 0x3e5000 -> ppn 0x1bd8000.
40442261600: system.acc0_datapath: Mapping vaddr 0x3e6f00 -> paddr 0x1bd9f00.
40442261600: system.acc0_datapath: Inserting TLB entry vpn 0x3e6000 -> ppn 0x1bd9000.
40442261600: system.acc0_datapath: Mapping vaddr 0x3e7f00 -> paddr 0x1bdaf00.
40442261600: system.acc0_datapath: Inserting TLB entry vpn 0x3e7000 -> ppn 0x1bda000.
40442261600: system.acc0_datapath: Mapping vaddr 0x3e8f00 -> paddr 0x1bdbf00.
40442261600: system.acc0_datapath: Inserting TLB entry vpn 0x3e8000 -> ppn 0x1bdb000.
40442261600: system.acc0_datapath: Mapping vaddr 0x3e9f00 -> paddr 0x1bdcf00.
40442261600: system.acc0_datapath: Inserting TLB entry vpn 0x3e9000 -> ppn 0x1bdc000.
40442261600: system.acc0_datapath: Mapping vaddr 0x3eaf00 -> paddr 0x1bddf00.
40442261600: system.acc0_datapath: Inserting TLB entry vpn 0x3ea000 -> ppn 0x1bdd000.
40442261600: system.acc0_datapath: Mapping vaddr 0x3ebf00 -> paddr 0x1bdef00.
40442261600: system.acc0_datapath: Inserting TLB entry vpn 0x3eb000 -> ppn 0x1bde000.
40443419200: system.acc0_datapath: Activating accelerator id 3
-------------------------------
      Generating DDDG          
-------------------------------
-------------------------------
Num of Nodes: 108612
Num of Edges: 267422
Num of Reg Edges: 143957
Num of MEM Edges: 14860
Num of Control Edges: 108611
-------------------------------
-------------------------------
    Initializing BaseDatapath      
-------------------------------
 Top level: smv_matrix_multiply_transpose_nc_vec_fxp
=============================================
      Optimizing...            ./outputs/nnet_fwd
=============================================
-------------------------------
  Remove PHI and Convert Nodes 
-------------------------------
  Removing 88444 edges.
  Adding 60323 new edges.
  Removing 951 isolated nodes.
-------------------------------
  Remove Induction Dependence  
-------------------------------
-------------------------------
       Init Base Address       
-------------------------------
-------------------------------
     Init DMA Base Address     
-------------------------------
-------------------------------
        Mem to Reg Conv        
-------------------------------
-------------------------------
      ScratchPad Partition     
-------------------------------
-------------------------------
         Loop Flatten          
-------------------------------
  Removing 10750 isolated nodes.
  Removing 0 isolated nodes.
-------------------------------
         Loop Unrolling        
-------------------------------
  Adding 177114 new edges.
  Removing 1457 isolated nodes.
  Removing 0 isolated nodes.
-------------------------------
          Load Buffer          
-------------------------------
  Adding 1400 new edges.
  Removing 8400 edges.
  Removing 0 isolated nodes.
-------------------------------
          Store Buffer         
-------------------------------
  Adding 12664 new edges.
  Removing 3764 isolated nodes.
  Removing 0 isolated nodes.
-------------------------------
    Remove Repeated Stores     
-------------------------------
-------------------------------
      Memory Ambiguation       
-------------------------------
  Adding 6 new edges.
-------------------------------
     Tree Height Reduction     
-------------------------------
  Removing 8000 edges.
  Adding 8000 new edges.
  Removing 0 isolated nodes.
-------------------------------
  Fuse register loads/stores   
-------------------------------
  Removing 8442 edges.
  Adding 8442 new edges.
  Removing 0 isolated nodes.
-------------------------------
   Fuse consecutive branches   
-------------------------------
  Removing 10751 edges.
  Adding 10751 new edges.
  Removing 0 isolated nodes.
-------------------------------
      Per Loop Pipelining      
-------------------------------
  Adding 78808 new edges.
  Removing 79877 edges.
  Removing 0 isolated nodes.
-------------------------------
         Loop Pipelining        
-------------------------------
=============================================
      Scheduling...            ./outputs/nnet_fwd
=============================================
  Total connected nodes: 82842
  Total edges: 347267
=============================================
40443429000: system.acc0_datapath: Scheduling DMA load operation with node id 72 with delay 588000
40444017000: system.acc0_datapath: Adding DMA node 72 to DMA issue queue.
40444017000: system.acc0_datapath: issueDmaRequest: src_addr: 0x2923e60, dst_addr: 0x29502e0, size: 1568
40444017000: system.acc0_datapath: DMA Accesses: array label a
40444017000: system.acc0_datapath: Increment the dmaLoad accesses of partition a with size 1568. 
40444057501: system.acc0_datapath: Receiving DMA response for node 72, address 0x29502e0 with label a and size 32.
40444060501: system.acc0_datapath: Receiving DMA response for node 72, address 0x2950340 with label a and size 32.
40444069001: system.acc0_datapath: Receiving DMA response for node 72, address 0x2950460 with label a and size 32.
40444071501: system.acc0_datapath: Receiving DMA response for node 72, address 0x2950300 with label a and size 32.
40444074001: system.acc0_datapath: Receiving DMA response for node 72, address 0x2950320 with label a and size 32.
40444076001: system.acc0_datapath: Receiving DMA response for node 72, address 0x2950360 with label a and size 32.
40444079001: system.acc0_datapath: Receiving DMA response for node 72, address 0x2950380 with label a and size 32.
40444081001: system.acc0_datapath: Receiving DMA response for node 72, address 0x29503a0 with label a and size 32.
40444083001: system.acc0_datapath: Receiving DMA response for node 72, address 0x29503c0 with label a and size 32.
40444085001: system.acc0_datapath: Receiving DMA response for node 72, address 0x29503e0 with label a and size 32.
40444088001: system.acc0_datapath: Receiving DMA response for node 72, address 0x2950400 with label a and size 32.
40444090001: system.acc0_datapath: Receiving DMA response for node 72, address 0x2950420 with label a and size 32.
40444093001: system.acc0_datapath: Receiving DMA response for node 72, address 0x2950440 with label a and size 32.
40444095001: system.acc0_datapath: Receiving DMA response for node 72, address 0x2950480 with label a and size 32.
40444098001: system.acc0_datapath: Receiving DMA response for node 72, address 0x29504a0 with label a and size 32.
40444100501: system.acc0_datapath: Receiving DMA response for node 72, address 0x29504c0 with label a and size 32.
40444103501: system.acc0_datapath: Receiving DMA response for node 72, address 0x2950500 with label a and size 32.
40444111001: system.acc0_datapath: Receiving DMA response for node 72, address 0x29504e0 with label a and size 32.
40444123001: system.acc0_datapath: Receiving DMA response for node 72, address 0x2950520 with label a and size 32.
40444128001: system.acc0_datapath: Receiving DMA response for node 72, address 0x2950540 with label a and size 32.
40444132001: system.acc0_datapath: Receiving DMA response for node 72, address 0x2950560 with label a and size 32.
40444134501: system.acc0_datapath: Receiving DMA response for node 72, address 0x2950580 with label a and size 32.
40444136501: system.acc0_datapath: Receiving DMA response for node 72, address 0x29505a0 with label a and size 32.
40444138501: system.acc0_datapath: Receiving DMA response for node 72, address 0x29505c0 with label a and size 32.
40444141001: system.acc0_datapath: Receiving DMA response for node 72, address 0x29505e0 with label a and size 32.
40444143001: system.acc0_datapath: Receiving DMA response for node 72, address 0x2950600 with label a and size 32.
40444145501: system.acc0_datapath: Receiving DMA response for node 72, address 0x2950620 with label a and size 32.
40444147501: system.acc0_datapath: Receiving DMA response for node 72, address 0x2950640 with label a and size 32.
40444150001: system.acc0_datapath: Receiving DMA response for node 72, address 0x2950660 with label a and size 32.
40444152501: system.acc0_datapath: Receiving DMA response for node 72, address 0x2950680 with label a and size 32.
40444155501: system.acc0_datapath: Receiving DMA response for node 72, address 0x29506a0 with label a and size 32.
40444158001: system.acc0_datapath: Receiving DMA response for node 72, address 0x29506c0 with label a and size 32.
40444160001: system.acc0_datapath: Receiving DMA response for node 72, address 0x29506e0 with label a and size 32.
40444169501: system.acc0_datapath: Receiving DMA response for node 72, address 0x2950700 with label a and size 32.
40444176001: system.acc0_datapath: Receiving DMA response for node 72, address 0x2950720 with label a and size 32.
40444180501: system.acc0_datapath: Receiving DMA response for node 72, address 0x2950740 with label a and size 32.
40444185501: system.acc0_datapath: Receiving DMA response for node 72, address 0x2950760 with label a and size 32.
40444187501: system.acc0_datapath: Receiving DMA response for node 72, address 0x2950780 with label a and size 32.
40444189501: system.acc0_datapath: Receiving DMA response for node 72, address 0x29507a0 with label a and size 32.
40444191501: system.acc0_datapath: Receiving DMA response for node 72, address 0x29507c0 with label a and size 32.
40444194501: system.acc0_datapath: Receiving DMA response for node 72, address 0x29507e0 with label a and size 32.
40444198001: system.acc0_datapath: Receiving DMA response for node 72, address 0x2950800 with label a and size 32.
40444200001: system.acc0_datapath: Receiving DMA response for node 72, address 0x2950820 with label a and size 32.
40444202001: system.acc0_datapath: Receiving DMA response for node 72, address 0x2950840 with label a and size 32.
40444204001: system.acc0_datapath: Receiving DMA response for node 72, address 0x2950860 with label a and size 32.
40444206001: system.acc0_datapath: Receiving DMA response for node 72, address 0x2950880 with label a and size 32.
40444208001: system.acc0_datapath: Receiving DMA response for node 72, address 0x29508a0 with label a and size 32.
40444211001: system.acc0_datapath: Receiving DMA response for node 72, address 0x29508c0 with label a and size 32.
40444213001: system.acc0_datapath: Receiving DMA response for node 72, address 0x29508e0 with label a and size 32.
40444213001: system.acc0_datapath: dmaCompleteCallback for node 72.
40444370000: system.acc0_datapath: Scheduling DMA load operation with node id 1217 with delay 1536000
40445906000: system.acc0_datapath: Adding DMA node 1217 to DMA issue queue.
40445906000: system.acc0_datapath: issueDmaRequest: src_addr: 0x2943d60, dst_addr: 0x2960340, size: 4096
40445906000: system.acc0_datapath: DMA Accesses: array label b
40445906000: system.acc0_datapath: Increment the dmaLoad accesses of partition b with size 4096. 
40445981501: system.acc0_datapath: Receiving DMA response for node 1217, address 0x2960340 with label b and size 32.
40445986501: system.acc0_datapath: Receiving DMA response for node 1217, address 0x2960360 with label b and size 32.
40445991501: system.acc0_datapath: Receiving DMA response for node 1217, address 0x2960380 with label b and size 32.
40445996501: system.acc0_datapath: Receiving DMA response for node 1217, address 0x29603a0 with label b and size 32.
40446001501: system.acc0_datapath: Receiving DMA response for node 1217, address 0x29603c0 with label b and size 32.
40446006501: system.acc0_datapath: Receiving DMA response for node 1217, address 0x29603e0 with label b and size 32.
40446011501: system.acc0_datapath: Receiving DMA response for node 1217, address 0x2960400 with label b and size 32.
40446016501: system.acc0_datapath: Receiving DMA response for node 1217, address 0x2960420 with label b and size 32.
40446023001: system.acc0_datapath: Receiving DMA response for node 1217, address 0x2960440 with label b and size 32.
40446028001: system.acc0_datapath: Receiving DMA response for node 1217, address 0x2960460 with label b and size 32.
40446033001: system.acc0_datapath: Receiving DMA response for node 1217, address 0x2960480 with label b and size 32.
40446038001: system.acc0_datapath: Receiving DMA response for node 1217, address 0x29604a0 with label b and size 32.
40446043001: system.acc0_datapath: Receiving DMA response for node 1217, address 0x29604c0 with label b and size 32.
40446048001: system.acc0_datapath: Receiving DMA response for node 1217, address 0x29604e0 with label b and size 32.
40446053001: system.acc0_datapath: Receiving DMA response for node 1217, address 0x2960500 with label b and size 32.
40446058001: system.acc0_datapath: Receiving DMA response for node 1217, address 0x2960520 with label b and size 32.
40446063001: system.acc0_datapath: Receiving DMA response for node 1217, address 0x2960540 with label b and size 32.
40446068001: system.acc0_datapath: Receiving DMA response for node 1217, address 0x2960560 with label b and size 32.
40446073001: system.acc0_datapath: Receiving DMA response for node 1217, address 0x2960580 with label b and size 32.
40446078001: system.acc0_datapath: Receiving DMA response for node 1217, address 0x29605a0 with label b and size 32.
40446083001: system.acc0_datapath: Receiving DMA response for node 1217, address 0x29605c0 with label b and size 32.
40446088001: system.acc0_datapath: Receiving DMA response for node 1217, address 0x29605e0 with label b and size 32.
40446093001: system.acc0_datapath: Receiving DMA response for node 1217, address 0x2960600 with label b and size 32.
40446098001: system.acc0_datapath: Receiving DMA response for node 1217, address 0x2960620 with label b and size 32.
40446141501: system.acc0_datapath: Receiving DMA response for node 1217, address 0x2960640 with label b and size 32.
40446146501: system.acc0_datapath: Receiving DMA response for node 1217, address 0x2960660 with label b and size 32.
40446151501: system.acc0_datapath: Receiving DMA response for node 1217, address 0x2960680 with label b and size 32.
40446156501: system.acc0_datapath: Receiving DMA response for node 1217, address 0x29606a0 with label b and size 32.
40446161501: system.acc0_datapath: Receiving DMA response for node 1217, address 0x29606c0 with label b and size 32.
40446166501: system.acc0_datapath: Receiving DMA response for node 1217, address 0x29606e0 with label b and size 32.
40446171501: system.acc0_datapath: Receiving DMA response for node 1217, address 0x2960700 with label b and size 32.
40446176501: system.acc0_datapath: Receiving DMA response for node 1217, address 0x2960720 with label b and size 32.
40446181501: system.acc0_datapath: Receiving DMA response for node 1217, address 0x2960740 with label b and size 32.
40446186501: system.acc0_datapath: Receiving DMA response for node 1217, address 0x2960760 with label b and size 32.
40446191501: system.acc0_datapath: Receiving DMA response for node 1217, address 0x2960780 with label b and size 32.
40446196501: system.acc0_datapath: Receiving DMA response for node 1217, address 0x29607a0 with label b and size 32.
40446201501: system.acc0_datapath: Receiving DMA response for node 1217, address 0x29607c0 with label b and size 32.
40446206501: system.acc0_datapath: Receiving DMA response for node 1217, address 0x29607e0 with label b and size 32.
40446211501: system.acc0_datapath: Receiving DMA response for node 1217, address 0x2960800 with label b and size 32.
40446216501: system.acc0_datapath: Receiving DMA response for node 1217, address 0x2960820 with label b and size 32.
40446260001: system.acc0_datapath: Receiving DMA response for node 1217, address 0x2960840 with label b and size 32.
40446265001: system.acc0_datapath: Receiving DMA response for node 1217, address 0x2960860 with label b and size 32.
40446270001: system.acc0_datapath: Receiving DMA response for node 1217, address 0x2960880 with label b and size 32.
40446275001: system.acc0_datapath: Receiving DMA response for node 1217, address 0x29608a0 with label b and size 32.
40446280001: system.acc0_datapath: Receiving DMA response for node 1217, address 0x29608c0 with label b and size 32.
40446285001: system.acc0_datapath: Receiving DMA response for node 1217, address 0x29608e0 with label b and size 32.
40446290001: system.acc0_datapath: Receiving DMA response for node 1217, address 0x2960900 with label b and size 32.
40446295001: system.acc0_datapath: Receiving DMA response for node 1217, address 0x2960920 with label b and size 32.
40446300001: system.acc0_datapath: Receiving DMA response for node 1217, address 0x2960940 with label b and size 32.
40446305001: system.acc0_datapath: Receiving DMA response for node 1217, address 0x2960960 with label b and size 32.
40446310001: system.acc0_datapath: Receiving DMA response for node 1217, address 0x2960980 with label b and size 32.
40446315001: system.acc0_datapath: Receiving DMA response for node 1217, address 0x29609a0 with label b and size 32.
40446320001: system.acc0_datapath: Receiving DMA response for node 1217, address 0x29609c0 with label b and size 32.
40446325001: system.acc0_datapath: Receiving DMA response for node 1217, address 0x29609e0 with label b and size 32.
40446330001: system.acc0_datapath: Receiving DMA response for node 1217, address 0x2960a00 with label b and size 32.
40446335001: system.acc0_datapath: Receiving DMA response for node 1217, address 0x2960a20 with label b and size 32.
40446378501: system.acc0_datapath: Receiving DMA response for node 1217, address 0x2960a40 with label b and size 32.
40446383501: system.acc0_datapath: Receiving DMA response for node 1217, address 0x2960a60 with label b and size 32.
40446388501: system.acc0_datapath: Receiving DMA response for node 1217, address 0x2960a80 with label b and size 32.
40446393501: system.acc0_datapath: Receiving DMA response for node 1217, address 0x2960aa0 with label b and size 32.
40446398501: system.acc0_datapath: Receiving DMA response for node 1217, address 0x2960ac0 with label b and size 32.
40446403501: system.acc0_datapath: Receiving DMA response for node 1217, address 0x2960ae0 with label b and size 32.
40446408501: system.acc0_datapath: Receiving DMA response for node 1217, address 0x2960b00 with label b and size 32.
40446413501: system.acc0_datapath: Receiving DMA response for node 1217, address 0x2960b20 with label b and size 32.
40446418501: system.acc0_datapath: Receiving DMA response for node 1217, address 0x2960b40 with label b and size 32.
40446423501: system.acc0_datapath: Receiving DMA response for node 1217, address 0x2960b60 with label b and size 32.
40446428501: system.acc0_datapath: Receiving DMA response for node 1217, address 0x2960b80 with label b and size 32.
40446433501: system.acc0_datapath: Receiving DMA response for node 1217, address 0x2960ba0 with label b and size 32.
40446438501: system.acc0_datapath: Receiving DMA response for node 1217, address 0x2960bc0 with label b and size 32.
40446443501: system.acc0_datapath: Receiving DMA response for node 1217, address 0x2960be0 with label b and size 32.
40446448501: system.acc0_datapath: Receiving DMA response for node 1217, address 0x2960c00 with label b and size 32.
40446453501: system.acc0_datapath: Receiving DMA response for node 1217, address 0x2960c20 with label b and size 32.
40446497001: system.acc0_datapath: Receiving DMA response for node 1217, address 0x2960c40 with label b and size 32.
40446502001: system.acc0_datapath: Receiving DMA response for node 1217, address 0x2960c60 with label b and size 32.
40446507001: system.acc0_datapath: Receiving DMA response for node 1217, address 0x2960c80 with label b and size 32.
40446512001: system.acc0_datapath: Receiving DMA response for node 1217, address 0x2960ca0 with label b and size 32.
40446517001: system.acc0_datapath: Receiving DMA response for node 1217, address 0x2960cc0 with label b and size 32.
40446522001: system.acc0_datapath: Receiving DMA response for node 1217, address 0x2960ce0 with label b and size 32.
40446527001: system.acc0_datapath: Receiving DMA response for node 1217, address 0x2960d00 with label b and size 32.
40446532001: system.acc0_datapath: Receiving DMA response for node 1217, address 0x2960d20 with label b and size 32.
40446537001: system.acc0_datapath: Receiving DMA response for node 1217, address 0x2960d40 with label b and size 32.
40446542001: system.acc0_datapath: Receiving DMA response for node 1217, address 0x2960d60 with label b and size 32.
40446547001: system.acc0_datapath: Receiving DMA response for node 1217, address 0x2960d80 with label b and size 32.
40446552001: system.acc0_datapath: Receiving DMA response for node 1217, address 0x2960da0 with label b and size 32.
40446557001: system.acc0_datapath: Receiving DMA response for node 1217, address 0x2960dc0 with label b and size 32.
40446562001: system.acc0_datapath: Receiving DMA response for node 1217, address 0x2960de0 with label b and size 32.
40446567001: system.acc0_datapath: Receiving DMA response for node 1217, address 0x2960e00 with label b and size 32.
40446572001: system.acc0_datapath: Receiving DMA response for node 1217, address 0x2960e20 with label b and size 32.
40446615501: system.acc0_datapath: Receiving DMA response for node 1217, address 0x2960e40 with label b and size 32.
40446620501: system.acc0_datapath: Receiving DMA response for node 1217, address 0x2960e60 with label b and size 32.
40446625501: system.acc0_datapath: Receiving DMA response for node 1217, address 0x2960e80 with label b and size 32.
40446630501: system.acc0_datapath: Receiving DMA response for node 1217, address 0x2960ea0 with label b and size 32.
40446635501: system.acc0_datapath: Receiving DMA response for node 1217, address 0x2960ec0 with label b and size 32.
40446640501: system.acc0_datapath: Receiving DMA response for node 1217, address 0x2960ee0 with label b and size 32.
40446645501: system.acc0_datapath: Receiving DMA response for node 1217, address 0x2960f00 with label b and size 32.
40446650501: system.acc0_datapath: Receiving DMA response for node 1217, address 0x2960f20 with label b and size 32.
40446655501: system.acc0_datapath: Receiving DMA response for node 1217, address 0x2960f40 with label b and size 32.
40446660501: system.acc0_datapath: Receiving DMA response for node 1217, address 0x2960f60 with label b and size 32.
40446665501: system.acc0_datapath: Receiving DMA response for node 1217, address 0x2960f80 with label b and size 32.
40446670501: system.acc0_datapath: Receiving DMA response for node 1217, address 0x2960fa0 with label b and size 32.
40446675501: system.acc0_datapath: Receiving DMA response for node 1217, address 0x2960fc0 with label b and size 32.
40446680501: system.acc0_datapath: Receiving DMA response for node 1217, address 0x2960fe0 with label b and size 32.
40446685501: system.acc0_datapath: Receiving DMA response for node 1217, address 0x2961000 with label b and size 32.
40446690501: system.acc0_datapath: Receiving DMA response for node 1217, address 0x2961020 with label b and size 32.
40446734001: system.acc0_datapath: Receiving DMA response for node 1217, address 0x2961040 with label b and size 32.
40446739001: system.acc0_datapath: Receiving DMA response for node 1217, address 0x2961060 with label b and size 32.
40446744001: system.acc0_datapath: Receiving DMA response for node 1217, address 0x2961080 with label b and size 32.
40446749001: system.acc0_datapath: Receiving DMA response for node 1217, address 0x29610a0 with label b and size 32.
40446754001: system.acc0_datapath: Receiving DMA response for node 1217, address 0x29610c0 with label b and size 32.
40446759001: system.acc0_datapath: Receiving DMA response for node 1217, address 0x29610e0 with label b and size 32.
40446764001: system.acc0_datapath: Receiving DMA response for node 1217, address 0x2961100 with label b and size 32.
40446769001: system.acc0_datapath: Receiving DMA response for node 1217, address 0x2961120 with label b and size 32.
40446774001: system.acc0_datapath: Receiving DMA response for node 1217, address 0x2961140 with label b and size 32.
40446779001: system.acc0_datapath: Receiving DMA response for node 1217, address 0x2961160 with label b and size 32.
40446784001: system.acc0_datapath: Receiving DMA response for node 1217, address 0x2961180 with label b and size 32.
40446789001: system.acc0_datapath: Receiving DMA response for node 1217, address 0x29611a0 with label b and size 32.
40446794001: system.acc0_datapath: Receiving DMA response for node 1217, address 0x29611c0 with label b and size 32.
40446799001: system.acc0_datapath: Receiving DMA response for node 1217, address 0x29611e0 with label b and size 32.
40446804001: system.acc0_datapath: Receiving DMA response for node 1217, address 0x2961200 with label b and size 32.
40446809001: system.acc0_datapath: Receiving DMA response for node 1217, address 0x2961220 with label b and size 32.
40446852501: system.acc0_datapath: Receiving DMA response for node 1217, address 0x2961240 with label b and size 32.
40446857501: system.acc0_datapath: Receiving DMA response for node 1217, address 0x2961260 with label b and size 32.
40446862501: system.acc0_datapath: Receiving DMA response for node 1217, address 0x2961280 with label b and size 32.
40446867501: system.acc0_datapath: Receiving DMA response for node 1217, address 0x29612a0 with label b and size 32.
40446872501: system.acc0_datapath: Receiving DMA response for node 1217, address 0x29612c0 with label b and size 32.
40446877501: system.acc0_datapath: Receiving DMA response for node 1217, address 0x29612e0 with label b and size 32.
40446882501: system.acc0_datapath: Receiving DMA response for node 1217, address 0x2961300 with label b and size 32.
40446887501: system.acc0_datapath: Receiving DMA response for node 1217, address 0x2961320 with label b and size 32.
40446887501: system.acc0_datapath: dmaCompleteCallback for node 1217.
40447273000: system.acc0_datapath: Scheduling DMA load operation with node id 4067 with delay 1536000
40448809000: system.acc0_datapath: Adding DMA node 4067 to DMA issue queue.
40448809000: system.acc0_datapath: issueDmaRequest: src_addr: 0x2944d60, dst_addr: 0x2962340, size: 4096
40448809000: system.acc0_datapath: DMA Accesses: array label b
40448809000: system.acc0_datapath: Increment the dmaLoad accesses of partition b with size 4096. 
40448866501: system.acc0_datapath: Receiving DMA response for node 4067, address 0x2962340 with label b and size 32.
40448871501: system.acc0_datapath: Receiving DMA response for node 4067, address 0x2962360 with label b and size 32.
40448876501: system.acc0_datapath: Receiving DMA response for node 4067, address 0x2962380 with label b and size 32.
40448881501: system.acc0_datapath: Receiving DMA response for node 4067, address 0x29623a0 with label b and size 32.
40448886501: system.acc0_datapath: Receiving DMA response for node 4067, address 0x29623c0 with label b and size 32.
40448891501: system.acc0_datapath: Receiving DMA response for node 4067, address 0x29623e0 with label b and size 32.
40448896501: system.acc0_datapath: Receiving DMA response for node 4067, address 0x2962400 with label b and size 32.
40448901501: system.acc0_datapath: Receiving DMA response for node 4067, address 0x2962420 with label b and size 32.
40448906501: system.acc0_datapath: Receiving DMA response for node 4067, address 0x2962440 with label b and size 32.
40448911501: system.acc0_datapath: Receiving DMA response for node 4067, address 0x2962460 with label b and size 32.
40448916501: system.acc0_datapath: Receiving DMA response for node 4067, address 0x2962480 with label b and size 32.
40448921501: system.acc0_datapath: Receiving DMA response for node 4067, address 0x29624a0 with label b and size 32.
40448926501: system.acc0_datapath: Receiving DMA response for node 4067, address 0x29624c0 with label b and size 32.
40448931501: system.acc0_datapath: Receiving DMA response for node 4067, address 0x29624e0 with label b and size 32.
40448936501: system.acc0_datapath: Receiving DMA response for node 4067, address 0x2962500 with label b and size 32.
40448941501: system.acc0_datapath: Receiving DMA response for node 4067, address 0x2962520 with label b and size 32.
40448946501: system.acc0_datapath: Receiving DMA response for node 4067, address 0x2962540 with label b and size 32.
40448951501: system.acc0_datapath: Receiving DMA response for node 4067, address 0x2962560 with label b and size 32.
40448956501: system.acc0_datapath: Receiving DMA response for node 4067, address 0x2962580 with label b and size 32.
40448961501: system.acc0_datapath: Receiving DMA response for node 4067, address 0x29625a0 with label b and size 32.
40448966501: system.acc0_datapath: Receiving DMA response for node 4067, address 0x29625c0 with label b and size 32.
40448971501: system.acc0_datapath: Receiving DMA response for node 4067, address 0x29625e0 with label b and size 32.
40448976501: system.acc0_datapath: Receiving DMA response for node 4067, address 0x2962600 with label b and size 32.
40448981501: system.acc0_datapath: Receiving DMA response for node 4067, address 0x2962620 with label b and size 32.
40449025001: system.acc0_datapath: Receiving DMA response for node 4067, address 0x2962640 with label b and size 32.
40449030001: system.acc0_datapath: Receiving DMA response for node 4067, address 0x2962660 with label b and size 32.
40449035001: system.acc0_datapath: Receiving DMA response for node 4067, address 0x2962680 with label b and size 32.
40449040001: system.acc0_datapath: Receiving DMA response for node 4067, address 0x29626a0 with label b and size 32.
40449045001: system.acc0_datapath: Receiving DMA response for node 4067, address 0x29626c0 with label b and size 32.
40449050001: system.acc0_datapath: Receiving DMA response for node 4067, address 0x29626e0 with label b and size 32.
40449055001: system.acc0_datapath: Receiving DMA response for node 4067, address 0x2962700 with label b and size 32.
40449060001: system.acc0_datapath: Receiving DMA response for node 4067, address 0x2962720 with label b and size 32.
40449065001: system.acc0_datapath: Receiving DMA response for node 4067, address 0x2962740 with label b and size 32.
40449070001: system.acc0_datapath: Receiving DMA response for node 4067, address 0x2962760 with label b and size 32.
40449075001: system.acc0_datapath: Receiving DMA response for node 4067, address 0x2962780 with label b and size 32.
40449080001: system.acc0_datapath: Receiving DMA response for node 4067, address 0x29627a0 with label b and size 32.
40449085001: system.acc0_datapath: Receiving DMA response for node 4067, address 0x29627c0 with label b and size 32.
40449090001: system.acc0_datapath: Receiving DMA response for node 4067, address 0x29627e0 with label b and size 32.
40449095001: system.acc0_datapath: Receiving DMA response for node 4067, address 0x2962800 with label b and size 32.
40449100001: system.acc0_datapath: Receiving DMA response for node 4067, address 0x2962820 with label b and size 32.
40449143501: system.acc0_datapath: Receiving DMA response for node 4067, address 0x2962840 with label b and size 32.
40449148501: system.acc0_datapath: Receiving DMA response for node 4067, address 0x2962860 with label b and size 32.
40449153501: system.acc0_datapath: Receiving DMA response for node 4067, address 0x2962880 with label b and size 32.
40449158501: system.acc0_datapath: Receiving DMA response for node 4067, address 0x29628a0 with label b and size 32.
40449163501: system.acc0_datapath: Receiving DMA response for node 4067, address 0x29628c0 with label b and size 32.
40449168501: system.acc0_datapath: Receiving DMA response for node 4067, address 0x29628e0 with label b and size 32.
40449173501: system.acc0_datapath: Receiving DMA response for node 4067, address 0x2962900 with label b and size 32.
40449178501: system.acc0_datapath: Receiving DMA response for node 4067, address 0x2962920 with label b and size 32.
40449183501: system.acc0_datapath: Receiving DMA response for node 4067, address 0x2962940 with label b and size 32.
40449188501: system.acc0_datapath: Receiving DMA response for node 4067, address 0x2962960 with label b and size 32.
40449193501: system.acc0_datapath: Receiving DMA response for node 4067, address 0x2962980 with label b and size 32.
40449198501: system.acc0_datapath: Receiving DMA response for node 4067, address 0x29629a0 with label b and size 32.
40449203501: system.acc0_datapath: Receiving DMA response for node 4067, address 0x29629c0 with label b and size 32.
40449208501: system.acc0_datapath: Receiving DMA response for node 4067, address 0x29629e0 with label b and size 32.
40449213501: system.acc0_datapath: Receiving DMA response for node 4067, address 0x2962a00 with label b and size 32.
40449218501: system.acc0_datapath: Receiving DMA response for node 4067, address 0x2962a20 with label b and size 32.
40449262001: system.acc0_datapath: Receiving DMA response for node 4067, address 0x2962a40 with label b and size 32.
40449267001: system.acc0_datapath: Receiving DMA response for node 4067, address 0x2962a60 with label b and size 32.
40449272001: system.acc0_datapath: Receiving DMA response for node 4067, address 0x2962a80 with label b and size 32.
40449277001: system.acc0_datapath: Receiving DMA response for node 4067, address 0x2962aa0 with label b and size 32.
40449282001: system.acc0_datapath: Receiving DMA response for node 4067, address 0x2962ac0 with label b and size 32.
40449287001: system.acc0_datapath: Receiving DMA response for node 4067, address 0x2962ae0 with label b and size 32.
40449292001: system.acc0_datapath: Receiving DMA response for node 4067, address 0x2962b00 with label b and size 32.
40449297001: system.acc0_datapath: Receiving DMA response for node 4067, address 0x2962b20 with label b and size 32.
40449302001: system.acc0_datapath: Receiving DMA response for node 4067, address 0x2962b40 with label b and size 32.
40449307001: system.acc0_datapath: Receiving DMA response for node 4067, address 0x2962b60 with label b and size 32.
40449312001: system.acc0_datapath: Receiving DMA response for node 4067, address 0x2962b80 with label b and size 32.
40449317001: system.acc0_datapath: Receiving DMA response for node 4067, address 0x2962ba0 with label b and size 32.
40449322001: system.acc0_datapath: Receiving DMA response for node 4067, address 0x2962bc0 with label b and size 32.
40449327001: system.acc0_datapath: Receiving DMA response for node 4067, address 0x2962be0 with label b and size 32.
40449332001: system.acc0_datapath: Receiving DMA response for node 4067, address 0x2962c00 with label b and size 32.
40449337001: system.acc0_datapath: Receiving DMA response for node 4067, address 0x2962c20 with label b and size 32.
40449380501: system.acc0_datapath: Receiving DMA response for node 4067, address 0x2962c40 with label b and size 32.
40449385501: system.acc0_datapath: Receiving DMA response for node 4067, address 0x2962c60 with label b and size 32.
40449390501: system.acc0_datapath: Receiving DMA response for node 4067, address 0x2962c80 with label b and size 32.
40449395501: system.acc0_datapath: Receiving DMA response for node 4067, address 0x2962ca0 with label b and size 32.
40449400501: system.acc0_datapath: Receiving DMA response for node 4067, address 0x2962cc0 with label b and size 32.
40449405501: system.acc0_datapath: Receiving DMA response for node 4067, address 0x2962ce0 with label b and size 32.
40449410501: system.acc0_datapath: Receiving DMA response for node 4067, address 0x2962d00 with label b and size 32.
40449415501: system.acc0_datapath: Receiving DMA response for node 4067, address 0x2962d20 with label b and size 32.
40449420501: system.acc0_datapath: Receiving DMA response for node 4067, address 0x2962d40 with label b and size 32.
40449425501: system.acc0_datapath: Receiving DMA response for node 4067, address 0x2962d60 with label b and size 32.
40449430501: system.acc0_datapath: Receiving DMA response for node 4067, address 0x2962d80 with label b and size 32.
40449435501: system.acc0_datapath: Receiving DMA response for node 4067, address 0x2962da0 with label b and size 32.
40449440501: system.acc0_datapath: Receiving DMA response for node 4067, address 0x2962dc0 with label b and size 32.
40449445501: system.acc0_datapath: Receiving DMA response for node 4067, address 0x2962de0 with label b and size 32.
40449450501: system.acc0_datapath: Receiving DMA response for node 4067, address 0x2962e00 with label b and size 32.
40449455501: system.acc0_datapath: Receiving DMA response for node 4067, address 0x2962e20 with label b and size 32.
40449499001: system.acc0_datapath: Receiving DMA response for node 4067, address 0x2962e40 with label b and size 32.
40449504001: system.acc0_datapath: Receiving DMA response for node 4067, address 0x2962e60 with label b and size 32.
40449509001: system.acc0_datapath: Receiving DMA response for node 4067, address 0x2962e80 with label b and size 32.
40449514001: system.acc0_datapath: Receiving DMA response for node 4067, address 0x2962ea0 with label b and size 32.
40449519001: system.acc0_datapath: Receiving DMA response for node 4067, address 0x2962ec0 with label b and size 32.
40449524001: system.acc0_datapath: Receiving DMA response for node 4067, address 0x2962ee0 with label b and size 32.
40449529001: system.acc0_datapath: Receiving DMA response for node 4067, address 0x2962f00 with label b and size 32.
40449534001: system.acc0_datapath: Receiving DMA response for node 4067, address 0x2962f20 with label b and size 32.
40449539001: system.acc0_datapath: Receiving DMA response for node 4067, address 0x2962f40 with label b and size 32.
40449544001: system.acc0_datapath: Receiving DMA response for node 4067, address 0x2962f60 with label b and size 32.
40449549001: system.acc0_datapath: Receiving DMA response for node 4067, address 0x2962f80 with label b and size 32.
40449554001: system.acc0_datapath: Receiving DMA response for node 4067, address 0x2962fa0 with label b and size 32.
40449559001: system.acc0_datapath: Receiving DMA response for node 4067, address 0x2962fc0 with label b and size 32.
40449564001: system.acc0_datapath: Receiving DMA response for node 4067, address 0x2962fe0 with label b and size 32.
40449569001: system.acc0_datapath: Receiving DMA response for node 4067, address 0x2963000 with label b and size 32.
40449574001: system.acc0_datapath: Receiving DMA response for node 4067, address 0x2963020 with label b and size 32.
40449617501: system.acc0_datapath: Receiving DMA response for node 4067, address 0x2963040 with label b and size 32.
40449622501: system.acc0_datapath: Receiving DMA response for node 4067, address 0x2963060 with label b and size 32.
40449627501: system.acc0_datapath: Receiving DMA response for node 4067, address 0x2963080 with label b and size 32.
40449632501: system.acc0_datapath: Receiving DMA response for node 4067, address 0x29630a0 with label b and size 32.
40449637501: system.acc0_datapath: Receiving DMA response for node 4067, address 0x29630c0 with label b and size 32.
40449642501: system.acc0_datapath: Receiving DMA response for node 4067, address 0x29630e0 with label b and size 32.
40449647501: system.acc0_datapath: Receiving DMA response for node 4067, address 0x2963100 with label b and size 32.
40449652501: system.acc0_datapath: Receiving DMA response for node 4067, address 0x2963120 with label b and size 32.
40449657501: system.acc0_datapath: Receiving DMA response for node 4067, address 0x2963140 with label b and size 32.
40449662501: system.acc0_datapath: Receiving DMA response for node 4067, address 0x2963160 with label b and size 32.
40449886001: system.acc0_datapath: Receiving DMA response for node 4067, address 0x2963180 with label b and size 32.
40449891001: system.acc0_datapath: Receiving DMA response for node 4067, address 0x29631a0 with label b and size 32.
40449896001: system.acc0_datapath: Receiving DMA response for node 4067, address 0x29631c0 with label b and size 32.
40449901001: system.acc0_datapath: Receiving DMA response for node 4067, address 0x29631e0 with label b and size 32.
40449906001: system.acc0_datapath: Receiving DMA response for node 4067, address 0x2963200 with label b and size 32.
40449911001: system.acc0_datapath: Receiving DMA response for node 4067, address 0x2963220 with label b and size 32.
40449916001: system.acc0_datapath: Receiving DMA response for node 4067, address 0x2963240 with label b and size 32.
40449921001: system.acc0_datapath: Receiving DMA response for node 4067, address 0x2963260 with label b and size 32.
40449926001: system.acc0_datapath: Receiving DMA response for node 4067, address 0x2963280 with label b and size 32.
40449931001: system.acc0_datapath: Receiving DMA response for node 4067, address 0x29632a0 with label b and size 32.
40449936001: system.acc0_datapath: Receiving DMA response for node 4067, address 0x29632c0 with label b and size 32.
40449941001: system.acc0_datapath: Receiving DMA response for node 4067, address 0x29632e0 with label b and size 32.
40449946001: system.acc0_datapath: Receiving DMA response for node 4067, address 0x2963300 with label b and size 32.
40449951001: system.acc0_datapath: Receiving DMA response for node 4067, address 0x2963320 with label b and size 32.
40449951001: system.acc0_datapath: dmaCompleteCallback for node 4067.
40450337000: system.acc0_datapath: Scheduling DMA load operation with node id 6917 with delay 1536000
40451873000: system.acc0_datapath: Adding DMA node 6917 to DMA issue queue.
40451873000: system.acc0_datapath: issueDmaRequest: src_addr: 0x2945d60, dst_addr: 0x2964340, size: 4096
40451873000: system.acc0_datapath: DMA Accesses: array label b
40451873000: system.acc0_datapath: Increment the dmaLoad accesses of partition b with size 4096. 
40451930501: system.acc0_datapath: Receiving DMA response for node 6917, address 0x2964340 with label b and size 32.
40451935501: system.acc0_datapath: Receiving DMA response for node 6917, address 0x2964360 with label b and size 32.
40451979001: system.acc0_datapath: Receiving DMA response for node 6917, address 0x2964380 with label b and size 32.
40451984001: system.acc0_datapath: Receiving DMA response for node 6917, address 0x29643a0 with label b and size 32.
40451989001: system.acc0_datapath: Receiving DMA response for node 6917, address 0x29643c0 with label b and size 32.
40451994001: system.acc0_datapath: Receiving DMA response for node 6917, address 0x29643e0 with label b and size 32.
40451999001: system.acc0_datapath: Receiving DMA response for node 6917, address 0x2964400 with label b and size 32.
40452004001: system.acc0_datapath: Receiving DMA response for node 6917, address 0x2964420 with label b and size 32.
40452009001: system.acc0_datapath: Receiving DMA response for node 6917, address 0x2964440 with label b and size 32.
40452014001: system.acc0_datapath: Receiving DMA response for node 6917, address 0x2964460 with label b and size 32.
40452019001: system.acc0_datapath: Receiving DMA response for node 6917, address 0x2964480 with label b and size 32.
40452024001: system.acc0_datapath: Receiving DMA response for node 6917, address 0x29644a0 with label b and size 32.
40452029001: system.acc0_datapath: Receiving DMA response for node 6917, address 0x29644c0 with label b and size 32.
40452034001: system.acc0_datapath: Receiving DMA response for node 6917, address 0x29644e0 with label b and size 32.
40452039001: system.acc0_datapath: Receiving DMA response for node 6917, address 0x2964500 with label b and size 32.
40452044001: system.acc0_datapath: Receiving DMA response for node 6917, address 0x2964520 with label b and size 32.
40452049001: system.acc0_datapath: Receiving DMA response for node 6917, address 0x2964540 with label b and size 32.
40452054001: system.acc0_datapath: Receiving DMA response for node 6917, address 0x2964560 with label b and size 32.
40452059001: system.acc0_datapath: Receiving DMA response for node 6917, address 0x2964580 with label b and size 32.
40452064001: system.acc0_datapath: Receiving DMA response for node 6917, address 0x29645a0 with label b and size 32.
40452069001: system.acc0_datapath: Receiving DMA response for node 6917, address 0x29645c0 with label b and size 32.
40452074001: system.acc0_datapath: Receiving DMA response for node 6917, address 0x29645e0 with label b and size 32.
40452079001: system.acc0_datapath: Receiving DMA response for node 6917, address 0x2964600 with label b and size 32.
40452084001: system.acc0_datapath: Receiving DMA response for node 6917, address 0x2964620 with label b and size 32.
40452127501: system.acc0_datapath: Receiving DMA response for node 6917, address 0x2964640 with label b and size 32.
40452132501: system.acc0_datapath: Receiving DMA response for node 6917, address 0x2964660 with label b and size 32.
40452137501: system.acc0_datapath: Receiving DMA response for node 6917, address 0x2964680 with label b and size 32.
40452142501: system.acc0_datapath: Receiving DMA response for node 6917, address 0x29646a0 with label b and size 32.
40452147501: system.acc0_datapath: Receiving DMA response for node 6917, address 0x29646c0 with label b and size 32.
40452152501: system.acc0_datapath: Receiving DMA response for node 6917, address 0x29646e0 with label b and size 32.
40452157501: system.acc0_datapath: Receiving DMA response for node 6917, address 0x2964700 with label b and size 32.
40452162501: system.acc0_datapath: Receiving DMA response for node 6917, address 0x2964720 with label b and size 32.
40452167501: system.acc0_datapath: Receiving DMA response for node 6917, address 0x2964740 with label b and size 32.
40452172501: system.acc0_datapath: Receiving DMA response for node 6917, address 0x2964760 with label b and size 32.
40452177501: system.acc0_datapath: Receiving DMA response for node 6917, address 0x2964780 with label b and size 32.
40452182501: system.acc0_datapath: Receiving DMA response for node 6917, address 0x29647a0 with label b and size 32.
40452187501: system.acc0_datapath: Receiving DMA response for node 6917, address 0x29647c0 with label b and size 32.
40452192501: system.acc0_datapath: Receiving DMA response for node 6917, address 0x29647e0 with label b and size 32.
40452197501: system.acc0_datapath: Receiving DMA response for node 6917, address 0x2964800 with label b and size 32.
40452202501: system.acc0_datapath: Receiving DMA response for node 6917, address 0x2964820 with label b and size 32.
40452246001: system.acc0_datapath: Receiving DMA response for node 6917, address 0x2964840 with label b and size 32.
40452251001: system.acc0_datapath: Receiving DMA response for node 6917, address 0x2964860 with label b and size 32.
40452256001: system.acc0_datapath: Receiving DMA response for node 6917, address 0x2964880 with label b and size 32.
40452261001: system.acc0_datapath: Receiving DMA response for node 6917, address 0x29648a0 with label b and size 32.
40452266001: system.acc0_datapath: Receiving DMA response for node 6917, address 0x29648c0 with label b and size 32.
40452271001: system.acc0_datapath: Receiving DMA response for node 6917, address 0x29648e0 with label b and size 32.
40452276001: system.acc0_datapath: Receiving DMA response for node 6917, address 0x2964900 with label b and size 32.
40452281001: system.acc0_datapath: Receiving DMA response for node 6917, address 0x2964920 with label b and size 32.
40452286001: system.acc0_datapath: Receiving DMA response for node 6917, address 0x2964940 with label b and size 32.
40452291001: system.acc0_datapath: Receiving DMA response for node 6917, address 0x2964960 with label b and size 32.
40452296001: system.acc0_datapath: Receiving DMA response for node 6917, address 0x2964980 with label b and size 32.
40452301001: system.acc0_datapath: Receiving DMA response for node 6917, address 0x29649a0 with label b and size 32.
40452306001: system.acc0_datapath: Receiving DMA response for node 6917, address 0x29649c0 with label b and size 32.
40452311001: system.acc0_datapath: Receiving DMA response for node 6917, address 0x29649e0 with label b and size 32.
40452316001: system.acc0_datapath: Receiving DMA response for node 6917, address 0x2964a00 with label b and size 32.
40452321001: system.acc0_datapath: Receiving DMA response for node 6917, address 0x2964a20 with label b and size 32.
40452364501: system.acc0_datapath: Receiving DMA response for node 6917, address 0x2964a40 with label b and size 32.
40452369501: system.acc0_datapath: Receiving DMA response for node 6917, address 0x2964a60 with label b and size 32.
40452374501: system.acc0_datapath: Receiving DMA response for node 6917, address 0x2964a80 with label b and size 32.
40452379501: system.acc0_datapath: Receiving DMA response for node 6917, address 0x2964aa0 with label b and size 32.
40452384501: system.acc0_datapath: Receiving DMA response for node 6917, address 0x2964ac0 with label b and size 32.
40452389501: system.acc0_datapath: Receiving DMA response for node 6917, address 0x2964ae0 with label b and size 32.
40452394501: system.acc0_datapath: Receiving DMA response for node 6917, address 0x2964b00 with label b and size 32.
40452399501: system.acc0_datapath: Receiving DMA response for node 6917, address 0x2964b20 with label b and size 32.
40452404501: system.acc0_datapath: Receiving DMA response for node 6917, address 0x2964b40 with label b and size 32.
40452409501: system.acc0_datapath: Receiving DMA response for node 6917, address 0x2964b60 with label b and size 32.
40452414501: system.acc0_datapath: Receiving DMA response for node 6917, address 0x2964b80 with label b and size 32.
40452419501: system.acc0_datapath: Receiving DMA response for node 6917, address 0x2964ba0 with label b and size 32.
40452424501: system.acc0_datapath: Receiving DMA response for node 6917, address 0x2964bc0 with label b and size 32.
40452429501: system.acc0_datapath: Receiving DMA response for node 6917, address 0x2964be0 with label b and size 32.
40452434501: system.acc0_datapath: Receiving DMA response for node 6917, address 0x2964c00 with label b and size 32.
40452439501: system.acc0_datapath: Receiving DMA response for node 6917, address 0x2964c20 with label b and size 32.
40452483001: system.acc0_datapath: Receiving DMA response for node 6917, address 0x2964c40 with label b and size 32.
40452488001: system.acc0_datapath: Receiving DMA response for node 6917, address 0x2964c60 with label b and size 32.
40452493001: system.acc0_datapath: Receiving DMA response for node 6917, address 0x2964c80 with label b and size 32.
40452498001: system.acc0_datapath: Receiving DMA response for node 6917, address 0x2964ca0 with label b and size 32.
40452503001: system.acc0_datapath: Receiving DMA response for node 6917, address 0x2964cc0 with label b and size 32.
40452508001: system.acc0_datapath: Receiving DMA response for node 6917, address 0x2964ce0 with label b and size 32.
40452513001: system.acc0_datapath: Receiving DMA response for node 6917, address 0x2964d00 with label b and size 32.
40452518001: system.acc0_datapath: Receiving DMA response for node 6917, address 0x2964d20 with label b and size 32.
40452523001: system.acc0_datapath: Receiving DMA response for node 6917, address 0x2964d40 with label b and size 32.
40452528001: system.acc0_datapath: Receiving DMA response for node 6917, address 0x2964d60 with label b and size 32.
40452533001: system.acc0_datapath: Receiving DMA response for node 6917, address 0x2964d80 with label b and size 32.
40452538001: system.acc0_datapath: Receiving DMA response for node 6917, address 0x2964da0 with label b and size 32.
40452543001: system.acc0_datapath: Receiving DMA response for node 6917, address 0x2964dc0 with label b and size 32.
40452548001: system.acc0_datapath: Receiving DMA response for node 6917, address 0x2964de0 with label b and size 32.
40452553001: system.acc0_datapath: Receiving DMA response for node 6917, address 0x2964e00 with label b and size 32.
40452558001: system.acc0_datapath: Receiving DMA response for node 6917, address 0x2964e20 with label b and size 32.
40452601501: system.acc0_datapath: Receiving DMA response for node 6917, address 0x2964e40 with label b and size 32.
40452606501: system.acc0_datapath: Receiving DMA response for node 6917, address 0x2964e60 with label b and size 32.
40452611501: system.acc0_datapath: Receiving DMA response for node 6917, address 0x2964e80 with label b and size 32.
40452616501: system.acc0_datapath: Receiving DMA response for node 6917, address 0x2964ea0 with label b and size 32.
40452621501: system.acc0_datapath: Receiving DMA response for node 6917, address 0x2964ec0 with label b and size 32.
40452626501: system.acc0_datapath: Receiving DMA response for node 6917, address 0x2964ee0 with label b and size 32.
40452631501: system.acc0_datapath: Receiving DMA response for node 6917, address 0x2964f00 with label b and size 32.
40452636501: system.acc0_datapath: Receiving DMA response for node 6917, address 0x2964f20 with label b and size 32.
40452641501: system.acc0_datapath: Receiving DMA response for node 6917, address 0x2964f40 with label b and size 32.
40452646501: system.acc0_datapath: Receiving DMA response for node 6917, address 0x2964f60 with label b and size 32.
40452651501: system.acc0_datapath: Receiving DMA response for node 6917, address 0x2964f80 with label b and size 32.
40452656501: system.acc0_datapath: Receiving DMA response for node 6917, address 0x2964fa0 with label b and size 32.
40452661501: system.acc0_datapath: Receiving DMA response for node 6917, address 0x2964fc0 with label b and size 32.
40452666501: system.acc0_datapath: Receiving DMA response for node 6917, address 0x2964fe0 with label b and size 32.
40452671501: system.acc0_datapath: Receiving DMA response for node 6917, address 0x2965000 with label b and size 32.
40452676501: system.acc0_datapath: Receiving DMA response for node 6917, address 0x2965020 with label b and size 32.
40452720001: system.acc0_datapath: Receiving DMA response for node 6917, address 0x2965040 with label b and size 32.
40452725001: system.acc0_datapath: Receiving DMA response for node 6917, address 0x2965060 with label b and size 32.
40452730001: system.acc0_datapath: Receiving DMA response for node 6917, address 0x2965080 with label b and size 32.
40452735001: system.acc0_datapath: Receiving DMA response for node 6917, address 0x29650a0 with label b and size 32.
40452740001: system.acc0_datapath: Receiving DMA response for node 6917, address 0x29650c0 with label b and size 32.
40452745001: system.acc0_datapath: Receiving DMA response for node 6917, address 0x29650e0 with label b and size 32.
40452750001: system.acc0_datapath: Receiving DMA response for node 6917, address 0x2965100 with label b and size 32.
40452755001: system.acc0_datapath: Receiving DMA response for node 6917, address 0x2965120 with label b and size 32.
40452760001: system.acc0_datapath: Receiving DMA response for node 6917, address 0x2965140 with label b and size 32.
40452765001: system.acc0_datapath: Receiving DMA response for node 6917, address 0x2965160 with label b and size 32.
40452770001: system.acc0_datapath: Receiving DMA response for node 6917, address 0x2965180 with label b and size 32.
40452775001: system.acc0_datapath: Receiving DMA response for node 6917, address 0x29651a0 with label b and size 32.
40452780001: system.acc0_datapath: Receiving DMA response for node 6917, address 0x29651c0 with label b and size 32.
40452785001: system.acc0_datapath: Receiving DMA response for node 6917, address 0x29651e0 with label b and size 32.
40452790001: system.acc0_datapath: Receiving DMA response for node 6917, address 0x2965200 with label b and size 32.
40452795001: system.acc0_datapath: Receiving DMA response for node 6917, address 0x2965220 with label b and size 32.
40452838501: system.acc0_datapath: Receiving DMA response for node 6917, address 0x2965240 with label b and size 32.
40452843501: system.acc0_datapath: Receiving DMA response for node 6917, address 0x2965260 with label b and size 32.
40452848501: system.acc0_datapath: Receiving DMA response for node 6917, address 0x2965280 with label b and size 32.
40452853501: system.acc0_datapath: Receiving DMA response for node 6917, address 0x29652a0 with label b and size 32.
40452858501: system.acc0_datapath: Receiving DMA response for node 6917, address 0x29652c0 with label b and size 32.
40452863501: system.acc0_datapath: Receiving DMA response for node 6917, address 0x29652e0 with label b and size 32.
40452868501: system.acc0_datapath: Receiving DMA response for node 6917, address 0x2965300 with label b and size 32.
40452873501: system.acc0_datapath: Receiving DMA response for node 6917, address 0x2965320 with label b and size 32.
40452873501: system.acc0_datapath: dmaCompleteCallback for node 6917.
40453259000: system.acc0_datapath: Scheduling DMA load operation with node id 9767 with delay 1536000
40454795000: system.acc0_datapath: Adding DMA node 9767 to DMA issue queue.
40454795000: system.acc0_datapath: issueDmaRequest: src_addr: 0x2946d60, dst_addr: 0x2966340, size: 4096
40454795000: system.acc0_datapath: DMA Accesses: array label b
40454795000: system.acc0_datapath: Increment the dmaLoad accesses of partition b with size 4096. 
40454870501: system.acc0_datapath: Receiving DMA response for node 9767, address 0x2966340 with label b and size 32.
40454875501: system.acc0_datapath: Receiving DMA response for node 9767, address 0x2966360 with label b and size 32.
40454880501: system.acc0_datapath: Receiving DMA response for node 9767, address 0x2966380 with label b and size 32.
40454885501: system.acc0_datapath: Receiving DMA response for node 9767, address 0x29663a0 with label b and size 32.
40454890501: system.acc0_datapath: Receiving DMA response for node 9767, address 0x29663c0 with label b and size 32.
40454895501: system.acc0_datapath: Receiving DMA response for node 9767, address 0x29663e0 with label b and size 32.
40454900501: system.acc0_datapath: Receiving DMA response for node 9767, address 0x2966400 with label b and size 32.
40454905501: system.acc0_datapath: Receiving DMA response for node 9767, address 0x2966420 with label b and size 32.
40454910501: system.acc0_datapath: Receiving DMA response for node 9767, address 0x2966440 with label b and size 32.
40454915501: system.acc0_datapath: Receiving DMA response for node 9767, address 0x2966460 with label b and size 32.
40454920501: system.acc0_datapath: Receiving DMA response for node 9767, address 0x2966480 with label b and size 32.
40454925501: system.acc0_datapath: Receiving DMA response for node 9767, address 0x29664a0 with label b and size 32.
40454930501: system.acc0_datapath: Receiving DMA response for node 9767, address 0x29664c0 with label b and size 32.
40454935501: system.acc0_datapath: Receiving DMA response for node 9767, address 0x29664e0 with label b and size 32.
40454940501: system.acc0_datapath: Receiving DMA response for node 9767, address 0x2966500 with label b and size 32.
40454945501: system.acc0_datapath: Receiving DMA response for node 9767, address 0x2966520 with label b and size 32.
40454950501: system.acc0_datapath: Receiving DMA response for node 9767, address 0x2966540 with label b and size 32.
40454955501: system.acc0_datapath: Receiving DMA response for node 9767, address 0x2966560 with label b and size 32.
40454960501: system.acc0_datapath: Receiving DMA response for node 9767, address 0x2966580 with label b and size 32.
40454965501: system.acc0_datapath: Receiving DMA response for node 9767, address 0x29665a0 with label b and size 32.
40454970501: system.acc0_datapath: Receiving DMA response for node 9767, address 0x29665c0 with label b and size 32.
40454975501: system.acc0_datapath: Receiving DMA response for node 9767, address 0x29665e0 with label b and size 32.
40454980501: system.acc0_datapath: Receiving DMA response for node 9767, address 0x2966600 with label b and size 32.
40454985501: system.acc0_datapath: Receiving DMA response for node 9767, address 0x2966620 with label b and size 32.
40455029001: system.acc0_datapath: Receiving DMA response for node 9767, address 0x2966640 with label b and size 32.
40455034001: system.acc0_datapath: Receiving DMA response for node 9767, address 0x2966660 with label b and size 32.
40455039001: system.acc0_datapath: Receiving DMA response for node 9767, address 0x2966680 with label b and size 32.
40455044001: system.acc0_datapath: Receiving DMA response for node 9767, address 0x29666a0 with label b and size 32.
40455049001: system.acc0_datapath: Receiving DMA response for node 9767, address 0x29666c0 with label b and size 32.
40455054001: system.acc0_datapath: Receiving DMA response for node 9767, address 0x29666e0 with label b and size 32.
40455059001: system.acc0_datapath: Receiving DMA response for node 9767, address 0x2966700 with label b and size 32.
40455064001: system.acc0_datapath: Receiving DMA response for node 9767, address 0x2966720 with label b and size 32.
40455069001: system.acc0_datapath: Receiving DMA response for node 9767, address 0x2966740 with label b and size 32.
40455074001: system.acc0_datapath: Receiving DMA response for node 9767, address 0x2966760 with label b and size 32.
40455079001: system.acc0_datapath: Receiving DMA response for node 9767, address 0x2966780 with label b and size 32.
40455084001: system.acc0_datapath: Receiving DMA response for node 9767, address 0x29667a0 with label b and size 32.
40455089001: system.acc0_datapath: Receiving DMA response for node 9767, address 0x29667c0 with label b and size 32.
40455094001: system.acc0_datapath: Receiving DMA response for node 9767, address 0x29667e0 with label b and size 32.
40455099001: system.acc0_datapath: Receiving DMA response for node 9767, address 0x2966800 with label b and size 32.
40455104001: system.acc0_datapath: Receiving DMA response for node 9767, address 0x2966820 with label b and size 32.
40455147501: system.acc0_datapath: Receiving DMA response for node 9767, address 0x2966840 with label b and size 32.
40455152501: system.acc0_datapath: Receiving DMA response for node 9767, address 0x2966860 with label b and size 32.
40455157501: system.acc0_datapath: Receiving DMA response for node 9767, address 0x2966880 with label b and size 32.
40455162501: system.acc0_datapath: Receiving DMA response for node 9767, address 0x29668a0 with label b and size 32.
40455167501: system.acc0_datapath: Receiving DMA response for node 9767, address 0x29668c0 with label b and size 32.
40455172501: system.acc0_datapath: Receiving DMA response for node 9767, address 0x29668e0 with label b and size 32.
40455177501: system.acc0_datapath: Receiving DMA response for node 9767, address 0x2966900 with label b and size 32.
40455182501: system.acc0_datapath: Receiving DMA response for node 9767, address 0x2966920 with label b and size 32.
40455187501: system.acc0_datapath: Receiving DMA response for node 9767, address 0x2966940 with label b and size 32.
40455192501: system.acc0_datapath: Receiving DMA response for node 9767, address 0x2966960 with label b and size 32.
40455197501: system.acc0_datapath: Receiving DMA response for node 9767, address 0x2966980 with label b and size 32.
40455202501: system.acc0_datapath: Receiving DMA response for node 9767, address 0x29669a0 with label b and size 32.
40455207501: system.acc0_datapath: Receiving DMA response for node 9767, address 0x29669c0 with label b and size 32.
40455212501: system.acc0_datapath: Receiving DMA response for node 9767, address 0x29669e0 with label b and size 32.
40455217501: system.acc0_datapath: Receiving DMA response for node 9767, address 0x2966a00 with label b and size 32.
40455222501: system.acc0_datapath: Receiving DMA response for node 9767, address 0x2966a20 with label b and size 32.
40455266001: system.acc0_datapath: Receiving DMA response for node 9767, address 0x2966a40 with label b and size 32.
40455271001: system.acc0_datapath: Receiving DMA response for node 9767, address 0x2966a60 with label b and size 32.
40455276001: system.acc0_datapath: Receiving DMA response for node 9767, address 0x2966a80 with label b and size 32.
40455281001: system.acc0_datapath: Receiving DMA response for node 9767, address 0x2966aa0 with label b and size 32.
40455286001: system.acc0_datapath: Receiving DMA response for node 9767, address 0x2966ac0 with label b and size 32.
40455291001: system.acc0_datapath: Receiving DMA response for node 9767, address 0x2966ae0 with label b and size 32.
40455296001: system.acc0_datapath: Receiving DMA response for node 9767, address 0x2966b00 with label b and size 32.
40455301001: system.acc0_datapath: Receiving DMA response for node 9767, address 0x2966b20 with label b and size 32.
40455306001: system.acc0_datapath: Receiving DMA response for node 9767, address 0x2966b40 with label b and size 32.
40455311001: system.acc0_datapath: Receiving DMA response for node 9767, address 0x2966b60 with label b and size 32.
40455316001: system.acc0_datapath: Receiving DMA response for node 9767, address 0x2966b80 with label b and size 32.
40455321001: system.acc0_datapath: Receiving DMA response for node 9767, address 0x2966ba0 with label b and size 32.
40455326001: system.acc0_datapath: Receiving DMA response for node 9767, address 0x2966bc0 with label b and size 32.
40455331001: system.acc0_datapath: Receiving DMA response for node 9767, address 0x2966be0 with label b and size 32.
40455336001: system.acc0_datapath: Receiving DMA response for node 9767, address 0x2966c00 with label b and size 32.
40455341001: system.acc0_datapath: Receiving DMA response for node 9767, address 0x2966c20 with label b and size 32.
40455384501: system.acc0_datapath: Receiving DMA response for node 9767, address 0x2966c40 with label b and size 32.
40455389501: system.acc0_datapath: Receiving DMA response for node 9767, address 0x2966c60 with label b and size 32.
40455394501: system.acc0_datapath: Receiving DMA response for node 9767, address 0x2966c80 with label b and size 32.
40455399501: system.acc0_datapath: Receiving DMA response for node 9767, address 0x2966ca0 with label b and size 32.
40455404501: system.acc0_datapath: Receiving DMA response for node 9767, address 0x2966cc0 with label b and size 32.
40455409501: system.acc0_datapath: Receiving DMA response for node 9767, address 0x2966ce0 with label b and size 32.
40455414501: system.acc0_datapath: Receiving DMA response for node 9767, address 0x2966d00 with label b and size 32.
40455419501: system.acc0_datapath: Receiving DMA response for node 9767, address 0x2966d20 with label b and size 32.
40455424501: system.acc0_datapath: Receiving DMA response for node 9767, address 0x2966d40 with label b and size 32.
40455429501: system.acc0_datapath: Receiving DMA response for node 9767, address 0x2966d60 with label b and size 32.
40455434501: system.acc0_datapath: Receiving DMA response for node 9767, address 0x2966d80 with label b and size 32.
40455439501: system.acc0_datapath: Receiving DMA response for node 9767, address 0x2966da0 with label b and size 32.
40455444501: system.acc0_datapath: Receiving DMA response for node 9767, address 0x2966dc0 with label b and size 32.
40455449501: system.acc0_datapath: Receiving DMA response for node 9767, address 0x2966de0 with label b and size 32.
40455454501: system.acc0_datapath: Receiving DMA response for node 9767, address 0x2966e00 with label b and size 32.
40455459501: system.acc0_datapath: Receiving DMA response for node 9767, address 0x2966e20 with label b and size 32.
40455503001: system.acc0_datapath: Receiving DMA response for node 9767, address 0x2966e40 with label b and size 32.
40455508001: system.acc0_datapath: Receiving DMA response for node 9767, address 0x2966e60 with label b and size 32.
40455513001: system.acc0_datapath: Receiving DMA response for node 9767, address 0x2966e80 with label b and size 32.
40455518001: system.acc0_datapath: Receiving DMA response for node 9767, address 0x2966ea0 with label b and size 32.
40455523001: system.acc0_datapath: Receiving DMA response for node 9767, address 0x2966ec0 with label b and size 32.
40455528001: system.acc0_datapath: Receiving DMA response for node 9767, address 0x2966ee0 with label b and size 32.
40455533001: system.acc0_datapath: Receiving DMA response for node 9767, address 0x2966f00 with label b and size 32.
40455538001: system.acc0_datapath: Receiving DMA response for node 9767, address 0x2966f20 with label b and size 32.
40455543001: system.acc0_datapath: Receiving DMA response for node 9767, address 0x2966f40 with label b and size 32.
40455548001: system.acc0_datapath: Receiving DMA response for node 9767, address 0x2966f60 with label b and size 32.
40455553001: system.acc0_datapath: Receiving DMA response for node 9767, address 0x2966f80 with label b and size 32.
40455558001: system.acc0_datapath: Receiving DMA response for node 9767, address 0x2966fa0 with label b and size 32.
40455563001: system.acc0_datapath: Receiving DMA response for node 9767, address 0x2966fc0 with label b and size 32.
40455568001: system.acc0_datapath: Receiving DMA response for node 9767, address 0x2966fe0 with label b and size 32.
40455573001: system.acc0_datapath: Receiving DMA response for node 9767, address 0x2967000 with label b and size 32.
40455578001: system.acc0_datapath: Receiving DMA response for node 9767, address 0x2967020 with label b and size 32.
40455621501: system.acc0_datapath: Receiving DMA response for node 9767, address 0x2967040 with label b and size 32.
40455626501: system.acc0_datapath: Receiving DMA response for node 9767, address 0x2967060 with label b and size 32.
40455631501: system.acc0_datapath: Receiving DMA response for node 9767, address 0x2967080 with label b and size 32.
40455636501: system.acc0_datapath: Receiving DMA response for node 9767, address 0x29670a0 with label b and size 32.
40455641501: system.acc0_datapath: Receiving DMA response for node 9767, address 0x29670c0 with label b and size 32.
40455646501: system.acc0_datapath: Receiving DMA response for node 9767, address 0x29670e0 with label b and size 32.
40455651501: system.acc0_datapath: Receiving DMA response for node 9767, address 0x2967100 with label b and size 32.
40455656501: system.acc0_datapath: Receiving DMA response for node 9767, address 0x2967120 with label b and size 32.
40455661501: system.acc0_datapath: Receiving DMA response for node 9767, address 0x2967140 with label b and size 32.
40455666501: system.acc0_datapath: Receiving DMA response for node 9767, address 0x2967160 with label b and size 32.
40455671501: system.acc0_datapath: Receiving DMA response for node 9767, address 0x2967180 with label b and size 32.
40455676501: system.acc0_datapath: Receiving DMA response for node 9767, address 0x29671a0 with label b and size 32.
40455681501: system.acc0_datapath: Receiving DMA response for node 9767, address 0x29671c0 with label b and size 32.
40455686501: system.acc0_datapath: Receiving DMA response for node 9767, address 0x29671e0 with label b and size 32.
40455691501: system.acc0_datapath: Receiving DMA response for node 9767, address 0x2967200 with label b and size 32.
40455696501: system.acc0_datapath: Receiving DMA response for node 9767, address 0x2967220 with label b and size 32.
40455740001: system.acc0_datapath: Receiving DMA response for node 9767, address 0x2967240 with label b and size 32.
40455745001: system.acc0_datapath: Receiving DMA response for node 9767, address 0x2967260 with label b and size 32.
40455750001: system.acc0_datapath: Receiving DMA response for node 9767, address 0x2967280 with label b and size 32.
40455755001: system.acc0_datapath: Receiving DMA response for node 9767, address 0x29672a0 with label b and size 32.
40455760001: system.acc0_datapath: Receiving DMA response for node 9767, address 0x29672c0 with label b and size 32.
40455765001: system.acc0_datapath: Receiving DMA response for node 9767, address 0x29672e0 with label b and size 32.
40455770001: system.acc0_datapath: Receiving DMA response for node 9767, address 0x2967300 with label b and size 32.
40455775001: system.acc0_datapath: Receiving DMA response for node 9767, address 0x2967320 with label b and size 32.
40455775001: system.acc0_datapath: dmaCompleteCallback for node 9767.
40456161000: system.acc0_datapath: Scheduling DMA load operation with node id 12617 with delay 1536000
40457697000: system.acc0_datapath: Adding DMA node 12617 to DMA issue queue.
40457697000: system.acc0_datapath: issueDmaRequest: src_addr: 0x2947d60, dst_addr: 0x2968340, size: 4096
40457697000: system.acc0_datapath: DMA Accesses: array label b
40457697000: system.acc0_datapath: Increment the dmaLoad accesses of partition b with size 4096. 
40457772501: system.acc0_datapath: Receiving DMA response for node 12617, address 0x2968340 with label b and size 32.
40457777501: system.acc0_datapath: Receiving DMA response for node 12617, address 0x2968360 with label b and size 32.
40457782501: system.acc0_datapath: Receiving DMA response for node 12617, address 0x2968380 with label b and size 32.
40457787501: system.acc0_datapath: Receiving DMA response for node 12617, address 0x29683a0 with label b and size 32.
40457792501: system.acc0_datapath: Receiving DMA response for node 12617, address 0x29683c0 with label b and size 32.
40457797501: system.acc0_datapath: Receiving DMA response for node 12617, address 0x29683e0 with label b and size 32.
40457802501: system.acc0_datapath: Receiving DMA response for node 12617, address 0x2968400 with label b and size 32.
40457807501: system.acc0_datapath: Receiving DMA response for node 12617, address 0x2968420 with label b and size 32.
40457812501: system.acc0_datapath: Receiving DMA response for node 12617, address 0x2968440 with label b and size 32.
[...]
41038529501: system.acc0_datapath: Receiving DMA response for node 491, address 0x29604a0 with label b and size 32.
41038534501: system.acc0_datapath: Receiving DMA response for node 491, address 0x29604c0 with label b and size 32.
41038539501: system.acc0_datapath: Receiving DMA response for node 491, address 0x29604e0 with label b and size 32.
41038544501: system.acc0_datapath: Receiving DMA response for node 491, address 0x2960500 with label b and size 32.
41038549501: system.acc0_datapath: Receiving DMA response for node 491, address 0x2960520 with label b and size 32.
41038593001: system.acc0_datapath: Receiving DMA response for node 491, address 0x2960540 with label b and size 32.
41038598001: system.acc0_datapath: Receiving DMA response for node 491, address 0x2960560 with label b and size 32.
41038603001: system.acc0_datapath: Receiving DMA response for node 491, address 0x2960580 with label b and size 32.
41038608001: system.acc0_datapath: Receiving DMA response for node 491, address 0x29605a0 with label b and size 32.
41038613001: system.acc0_datapath: Receiving DMA response for node 491, address 0x29605c0 with label b and size 32.
41038618001: system.acc0_datapath: Receiving DMA response for node 491, address 0x29605e0 with label b and size 32.
41038623001: system.acc0_datapath: Receiving DMA response for node 491, address 0x2960600 with label b and size 32.
41038628001: system.acc0_datapath: Receiving DMA response for node 491, address 0x2960620 with label b and size 32.
41038633001: system.acc0_datapath: Receiving DMA response for node 491, address 0x2960640 with label b and size 32.
41038638001: system.acc0_datapath: Receiving DMA response for node 491, address 0x2960660 with label b and size 32.
41038643001: system.acc0_datapath: Receiving DMA response for node 491, address 0x2960680 with label b and size 32.
41038648001: system.acc0_datapath: Receiving DMA response for node 491, address 0x29606a0 with label b and size 32.
41038653001: system.acc0_datapath: Receiving DMA response for node 491, address 0x29606c0 with label b and size 32.
41038658001: system.acc0_datapath: Receiving DMA response for node 491, address 0x29606e0 with label b and size 32.
41038663001: system.acc0_datapath: Receiving DMA response for node 491, address 0x2960700 with label b and size 32.
41038668001: system.acc0_datapath: Receiving DMA response for node 491, address 0x2960720 with label b and size 32.
41038711501: system.acc0_datapath: Receiving DMA response for node 491, address 0x2960740 with label b and size 32.
41038716501: system.acc0_datapath: Receiving DMA response for node 491, address 0x2960760 with label b and size 32.
41038721501: system.acc0_datapath: Receiving DMA response for node 491, address 0x2960780 with label b and size 32.
41038726501: system.acc0_datapath: Receiving DMA response for node 491, address 0x29607a0 with label b and size 32.
41038731501: system.acc0_datapath: Receiving DMA response for node 491, address 0x29607c0 with label b and size 32.
41038736501: system.acc0_datapath: Receiving DMA response for node 491, address 0x29607e0 with label b and size 32.
41038741501: system.acc0_datapath: Receiving DMA response for node 491, address 0x2960800 with label b and size 32.
41038746501: system.acc0_datapath: Receiving DMA response for node 491, address 0x2960820 with label b and size 32.
41038751501: system.acc0_datapath: Receiving DMA response for node 491, address 0x2960840 with label b and size 32.
41038756501: system.acc0_datapath: Receiving DMA response for node 491, address 0x2960860 with label b and size 32.
41038761501: system.acc0_datapath: Receiving DMA response for node 491, address 0x2960880 with label b and size 32.
41038766501: system.acc0_datapath: Receiving DMA response for node 491, address 0x29608a0 with label b and size 32.
41038771501: system.acc0_datapath: Receiving DMA response for node 491, address 0x29608c0 with label b and size 32.
41038776501: system.acc0_datapath: Receiving DMA response for node 491, address 0x29608e0 with label b and size 32.
41038781501: system.acc0_datapath: Receiving DMA response for node 491, address 0x2960900 with label b and size 32.
41038786501: system.acc0_datapath: Receiving DMA response for node 491, address 0x2960920 with label b and size 32.
41038830001: system.acc0_datapath: Receiving DMA response for node 491, address 0x2960940 with label b and size 32.
41038835001: system.acc0_datapath: Receiving DMA response for node 491, address 0x2960960 with label b and size 32.
41038840001: system.acc0_datapath: Receiving DMA response for node 491, address 0x2960980 with label b and size 32.
41038845001: system.acc0_datapath: Receiving DMA response for node 491, address 0x29609a0 with label b and size 32.
41038850001: system.acc0_datapath: Receiving DMA response for node 491, address 0x29609c0 with label b and size 32.
41038855001: system.acc0_datapath: Receiving DMA response for node 491, address 0x29609e0 with label b and size 32.
41038860001: system.acc0_datapath: Receiving DMA response for node 491, address 0x2960a00 with label b and size 32.
41038865001: system.acc0_datapath: Receiving DMA response for node 491, address 0x2960a20 with label b and size 32.
41038870001: system.acc0_datapath: Receiving DMA response for node 491, address 0x2960a40 with label b and size 32.
41038875001: system.acc0_datapath: Receiving DMA response for node 491, address 0x2960a60 with label b and size 32.
41038880001: system.acc0_datapath: Receiving DMA response for node 491, address 0x2960a80 with label b and size 32.
41038885001: system.acc0_datapath: Receiving DMA response for node 491, address 0x2960aa0 with label b and size 32.
41038890001: system.acc0_datapath: Receiving DMA response for node 491, address 0x2960ac0 with label b and size 32.
41038895001: system.acc0_datapath: Receiving DMA response for node 491, address 0x2960ae0 with label b and size 32.
41038900001: system.acc0_datapath: Receiving DMA response for node 491, address 0x2960b00 with label b and size 32.
41038905001: system.acc0_datapath: Receiving DMA response for node 491, address 0x2960b20 with label b and size 32.
41038948501: system.acc0_datapath: Receiving DMA response for node 491, address 0x2960b40 with label b and size 32.
41038953501: system.acc0_datapath: Receiving DMA response for node 491, address 0x2960b60 with label b and size 32.
41038958501: system.acc0_datapath: Receiving DMA response for node 491, address 0x2960b80 with label b and size 32.
41038963501: system.acc0_datapath: Receiving DMA response for node 491, address 0x2960ba0 with label b and size 32.
41038968501: system.acc0_datapath: Receiving DMA response for node 491, address 0x2960bc0 with label b and size 32.
41038973501: system.acc0_datapath: Receiving DMA response for node 491, address 0x2960be0 with label b and size 32.
41038978501: system.acc0_datapath: Receiving DMA response for node 491, address 0x2960c00 with label b and size 32.
41038983501: system.acc0_datapath: Receiving DMA response for node 491, address 0x2960c20 with label b and size 32.
41038988501: system.acc0_datapath: Receiving DMA response for node 491, address 0x2960c40 with label b and size 32.
41038993501: system.acc0_datapath: Receiving DMA response for node 491, address 0x2960c60 with label b and size 32.
41038998501: system.acc0_datapath: Receiving DMA response for node 491, address 0x2960c80 with label b and size 32.
41039003501: system.acc0_datapath: Receiving DMA response for node 491, address 0x2960ca0 with label b and size 32.
41039008501: system.acc0_datapath: Receiving DMA response for node 491, address 0x2960cc0 with label b and size 32.
41039013501: system.acc0_datapath: Receiving DMA response for node 491, address 0x2960ce0 with label b and size 32.
41039018501: system.acc0_datapath: Receiving DMA response for node 491, address 0x2960d00 with label b and size 32.
41039023501: system.acc0_datapath: Receiving DMA response for node 491, address 0x2960d20 with label b and size 32.
41039067001: system.acc0_datapath: Receiving DMA response for node 491, address 0x2960d40 with label b and size 32.
41039072001: system.acc0_datapath: Receiving DMA response for node 491, address 0x2960d60 with label b and size 32.
41039077001: system.acc0_datapath: Receiving DMA response for node 491, address 0x2960d80 with label b and size 32.
41039082001: system.acc0_datapath: Receiving DMA response for node 491, address 0x2960da0 with label b and size 32.
41039087001: system.acc0_datapath: Receiving DMA response for node 491, address 0x2960dc0 with label b and size 32.
41039092001: system.acc0_datapath: Receiving DMA response for node 491, address 0x2960de0 with label b and size 32.
41039097001: system.acc0_datapath: Receiving DMA response for node 491, address 0x2960e00 with label b and size 32.
41039102001: system.acc0_datapath: Receiving DMA response for node 491, address 0x2960e20 with label b and size 32.
41039107001: system.acc0_datapath: Receiving DMA response for node 491, address 0x2960e40 with label b and size 32.
41039112001: system.acc0_datapath: Receiving DMA response for node 491, address 0x2960e60 with label b and size 32.
41039117001: system.acc0_datapath: Receiving DMA response for node 491, address 0x2960e80 with label b and size 32.
41039122001: system.acc0_datapath: Receiving DMA response for node 491, address 0x2960ea0 with label b and size 32.
41039127001: system.acc0_datapath: Receiving DMA response for node 491, address 0x2960ec0 with label b and size 32.
41039132001: system.acc0_datapath: Receiving DMA response for node 491, address 0x2960ee0 with label b and size 32.
41039137001: system.acc0_datapath: Receiving DMA response for node 491, address 0x2960f00 with label b and size 32.
41039142001: system.acc0_datapath: Receiving DMA response for node 491, address 0x2960f20 with label b and size 32.
41039185501: system.acc0_datapath: Receiving DMA response for node 491, address 0x2960f40 with label b and size 32.
41039190501: system.acc0_datapath: Receiving DMA response for node 491, address 0x2960f60 with label b and size 32.
41039195501: system.acc0_datapath: Receiving DMA response for node 491, address 0x2960f80 with label b and size 32.
41039200501: system.acc0_datapath: Receiving DMA response for node 491, address 0x2960fa0 with label b and size 32.
41039205501: system.acc0_datapath: Receiving DMA response for node 491, address 0x2960fc0 with label b and size 32.
41039210501: system.acc0_datapath: Receiving DMA response for node 491, address 0x2960fe0 with label b and size 32.
41039215501: system.acc0_datapath: Receiving DMA response for node 491, address 0x2961000 with label b and size 32.
41039220501: system.acc0_datapath: Receiving DMA response for node 491, address 0x2961020 with label b and size 32.
41039225501: system.acc0_datapath: Receiving DMA response for node 491, address 0x2961040 with label b and size 32.
41039230501: system.acc0_datapath: Receiving DMA response for node 491, address 0x2961060 with label b and size 32.
41039235501: system.acc0_datapath: Receiving DMA response for node 491, address 0x2961080 with label b and size 32.
41039240501: system.acc0_datapath: Receiving DMA response for node 491, address 0x29610a0 with label b and size 32.
41039245501: system.acc0_datapath: Receiving DMA response for node 491, address 0x29610c0 with label b and size 32.
41039250501: system.acc0_datapath: Receiving DMA response for node 491, address 0x29610e0 with label b and size 32.
41039255501: system.acc0_datapath: Receiving DMA response for node 491, address 0x2961100 with label b and size 32.
41039260501: system.acc0_datapath: Receiving DMA response for node 491, address 0x2961120 with label b and size 32.
41039304001: system.acc0_datapath: Receiving DMA response for node 491, address 0x2961140 with label b and size 32.
41039309001: system.acc0_datapath: Receiving DMA response for node 491, address 0x2961160 with label b and size 32.
41039314001: system.acc0_datapath: Receiving DMA response for node 491, address 0x2961180 with label b and size 32.
41039319001: system.acc0_datapath: Receiving DMA response for node 491, address 0x29611a0 with label b and size 32.
41039324001: system.acc0_datapath: Receiving DMA response for node 491, address 0x29611c0 with label b and size 32.
41039329001: system.acc0_datapath: Receiving DMA response for node 491, address 0x29611e0 with label b and size 32.
41039334001: system.acc0_datapath: Receiving DMA response for node 491, address 0x2961200 with label b and size 32.
41039339001: system.acc0_datapath: Receiving DMA response for node 491, address 0x2961220 with label b and size 32.
41039344001: system.acc0_datapath: Receiving DMA response for node 491, address 0x2961240 with label b and size 32.
41039349001: system.acc0_datapath: Receiving DMA response for node 491, address 0x2961260 with label b and size 32.
41039354001: system.acc0_datapath: Receiving DMA response for node 491, address 0x2961280 with label b and size 32.
41039359001: system.acc0_datapath: Receiving DMA response for node 491, address 0x29612a0 with label b and size 32.
41039364001: system.acc0_datapath: Receiving DMA response for node 491, address 0x29612c0 with label b and size 32.
41039369001: system.acc0_datapath: Receiving DMA response for node 491, address 0x29612e0 with label b and size 32.
41039374001: system.acc0_datapath: Receiving DMA response for node 491, address 0x2961300 with label b and size 32.
41039379001: system.acc0_datapath: Receiving DMA response for node 491, address 0x2961320 with label b and size 32.
41039379001: system.acc0_datapath: dmaCompleteCallback for node 491.
41039765000: system.acc0_datapath: Scheduling DMA load operation with node id 3341 with delay 384000
41040149000: system.acc0_datapath: Adding DMA node 3341 to DMA issue queue.
41040149000: system.acc0_datapath: issueDmaRequest: src_addr: 0x294b040, dst_addr: 0x2962340, size: 1024
41040149000: system.acc0_datapath: DMA Accesses: array label b
41040149000: system.acc0_datapath: Increment the dmaLoad accesses of partition b with size 1024. 
41040206501: system.acc0_datapath: Receiving DMA response for node 3341, address 0x2962340 with label b and size 32.
41040211501: system.acc0_datapath: Receiving DMA response for node 3341, address 0x2962360 with label b and size 32.
41040216501: system.acc0_datapath: Receiving DMA response for node 3341, address 0x2962380 with label b and size 32.
41040221501: system.acc0_datapath: Receiving DMA response for node 3341, address 0x29623a0 with label b and size 32.
41040226501: system.acc0_datapath: Receiving DMA response for node 3341, address 0x29623c0 with label b and size 32.
41040231501: system.acc0_datapath: Receiving DMA response for node 3341, address 0x29623e0 with label b and size 32.
41040236501: system.acc0_datapath: Receiving DMA response for node 3341, address 0x2962400 with label b and size 32.
41040241501: system.acc0_datapath: Receiving DMA response for node 3341, address 0x2962420 with label b and size 32.
41040246501: system.acc0_datapath: Receiving DMA response for node 3341, address 0x2962440 with label b and size 32.
41040251501: system.acc0_datapath: Receiving DMA response for node 3341, address 0x2962460 with label b and size 32.
41040256501: system.acc0_datapath: Receiving DMA response for node 3341, address 0x2962480 with label b and size 32.
41040261501: system.acc0_datapath: Receiving DMA response for node 3341, address 0x29624a0 with label b and size 32.
41040266501: system.acc0_datapath: Receiving DMA response for node 3341, address 0x29624c0 with label b and size 32.
41040271501: system.acc0_datapath: Receiving DMA response for node 3341, address 0x29624e0 with label b and size 32.
41040276501: system.acc0_datapath: Receiving DMA response for node 3341, address 0x2962500 with label b and size 32.
41040320001: system.acc0_datapath: Receiving DMA response for node 3341, address 0x2962520 with label b and size 32.
41040325001: system.acc0_datapath: Receiving DMA response for node 3341, address 0x2962540 with label b and size 32.
41040330001: system.acc0_datapath: Receiving DMA response for node 3341, address 0x2962560 with label b and size 32.
41040335001: system.acc0_datapath: Receiving DMA response for node 3341, address 0x2962580 with label b and size 32.
41040560001: system.acc0_datapath: Receiving DMA response for node 3341, address 0x29625a0 with label b and size 32.
41040565001: system.acc0_datapath: Receiving DMA response for node 3341, address 0x29625c0 with label b and size 32.
41040570001: system.acc0_datapath: Receiving DMA response for node 3341, address 0x29625e0 with label b and size 32.
41040575001: system.acc0_datapath: Receiving DMA response for node 3341, address 0x2962600 with label b and size 32.
41040580001: system.acc0_datapath: Receiving DMA response for node 3341, address 0x2962620 with label b and size 32.
41040585001: system.acc0_datapath: Receiving DMA response for node 3341, address 0x2962640 with label b and size 32.
41040590001: system.acc0_datapath: Receiving DMA response for node 3341, address 0x2962660 with label b and size 32.
41040595001: system.acc0_datapath: Receiving DMA response for node 3341, address 0x2962680 with label b and size 32.
41040600001: system.acc0_datapath: Receiving DMA response for node 3341, address 0x29626a0 with label b and size 32.
41040605001: system.acc0_datapath: Receiving DMA response for node 3341, address 0x29626c0 with label b and size 32.
41040610001: system.acc0_datapath: Receiving DMA response for node 3341, address 0x29626e0 with label b and size 32.
41040615001: system.acc0_datapath: Receiving DMA response for node 3341, address 0x2962700 with label b and size 32.
41040620001: system.acc0_datapath: Receiving DMA response for node 3341, address 0x2962720 with label b and size 32.
41040620001: system.acc0_datapath: dmaCompleteCallback for node 3341.
41041090000: system.acc0_datapath: Scheduling DMA store operation with node id 32438 with delay 12000
41041102000: system.acc0_datapath: Adding DMA node 32438 to DMA issue queue.
41041102000: system.acc0_datapath: issueDmaRequest: src_addr: 0x29703a0, dst_addr: 0x2943c40, size: 32
41041102000: system.acc0_datapath: DMA Accesses: array label results
41041102000: system.acc0_datapath: Increment the dmaStore accesses of partition results with size 32. 
41041184001: system.acc0_datapath: Receiving DMA response for node 32438, address 0x29703a0 with label results and size 32.
41041184001: system.acc0_datapath: dmaCompleteCallback for node 32438.
===============================
        Aladdin Results        
===============================
Running : ./outputs/nnet_fwd
Top level function: smv_matrix_multiply_transpose_nc_vec_fxp
Cycle : 4689 cycles
Upsampled Cycle : 0 cycles
Avg Power: 265.949 mW
Idle FU Cycles: 3786 cycles
Avg FU Power: 6.8419 mW
Avg FU Dynamic Power: 2.60477 mW
Avg FU leakage Power: 4.23713 mW
Avg MEM Power: 259.107 mW
Avg MEM Dynamic Power: 240.196 mW
Avg MEM Leakage Power: 18.911 mW
Total Area: 1.49786e+06 uM^2
FU Area: 357970 uM^2
MEM Area: 1.13989e+06 uM^2
Num of Multipliers (32-bit): 10
Num of Adders (32-bit): 132
Num of Bit-wise Operators (32-bit): 35
Num of Shifters (32-bit): 18
Num of Registers (32-bit): 521
===============================
        Aladdin Results        
===============================
41041186000: system.acc0_datapath: Accelerator completed.
41041186000: system.acc0_datapath: Elapsed host seconds 0.54.
41041186000: system.acc0_datapath: Sent finished signal.
41041203501: system.acc0_datapath: cacheRespCallback for control signal access: 0x1ab1dc0
41041205000: system.acc0_datapath: Woken up the CPU thread context.
Final network output:
mat_mul_3/output0, shape = (1, 10)
( 0 0 )
[ 0.00135422 0.00136566 0.00124931 0.00133801 0.00126743 0.00122643 0.00121498 0.00137329 0.00135517 0.0012598  ]

Exiting @ tick 41319596000 because exiting with last active thread context
